C19H19ClFNO3
APtclcactv12211717193D 0   0.00000     0.00000
 
 44 45  0  0  0  0  0  0  0  0999 V2000
    0.6012    1.3130    0.9118 C   0  0  0  0  0  0  0  0  0  0  0  0
    0.7081    0.1551   -1.1925 C   0  0  0  0  0  0  0  0  0  0  0  0
    1.3152    1.2559   -1.7654 C   0  0  0  0  0  0  0  0  0  0  0  0
    2.2315   -3.4642   -0.1600 C   0  0  0  0  0  0  0  0  0  0  0  0
    2.5821   -1.0949    0.1436 C   0  0  0  0  0  0  0  0  0  0  0  0
    3.4961   -3.5749   -0.7000 C   0  0  0  0  0  0  0  0  0  0  0  0
    3.8447   -1.2196   -0.3982 C   0  0  0  0  0  0  0  0  0  0  0  0
    4.3014   -2.4561   -0.8186 C   0  0  0  0  0  0  0  0  0  0  0  0
   -1.7646    0.3302    2.1928 C   0  0  0  0  0  0  0  0  0  0  0  0
   -6.1099   -0.8887   -0.6781 C   0  0  0  0  0  0  0  0  0  0  0  0
   -4.8673    1.2216   -1.1731 C   0  0  0  0  0  0  0  0  0  0  0  0
    0.3488    0.1806    0.1485 C   0  0  0  0  0  0  0  0  0  0  0  0
    1.7647   -2.2197    0.2666 C   0  0  0  0  0  0  0  0  0  0  0  0
    1.2091    2.4119    0.3353 C   0  0  0  0  0  0  0  0  0  0  0  0
    1.5663    2.3841   -1.0037 C   0  0  0  0  0  0  0  0  0  0  0  0
   -0.0927   -3.0358    1.4259 O   0  0  0  0  0  0  0  0  0  0  0  0
   -2.1268   -0.5398   -1.0733 O   0  0  0  0  0  0  0  0  0  0  0  0
    0.4105   -2.0935    0.8456 C   0  0  0  0  0  0  0  0  0  0  0  0
   -2.5729   -0.6142    0.0471 C   0  0  0  0  0  0  0  0  0  0  0  0
   -3.8941   -0.4960    0.2527 O   0  0  0  0  0  0  0  0  0  0  0  0
   -1.6460   -0.8396    1.2138 C   0  0  0  0  0  0  0  0  0  0  0  0
   -4.7266   -0.2802   -0.9172 C   0  0  0  0  0  0  0  0  0  0  0  0
    1.5251    3.8281    1.2883 Cl  0  0  0  0  0  0  0  0  0  0  0  0
    2.1606    3.4592   -1.5659 F   0  0  0  0  0  0  0  0  0  0  0  0
   -0.2663   -0.9338    0.7302 N   0  0  0  0  0  0  0  0  0  0  0  0
   -1.9177   -1.7660    1.7199 H   0  0  0  0  0  0  0  0  0  0  0  0
    0.3185    1.3364    1.9539 H   0  0  0  0  0  0  0  0  0  0  0  0
    0.5129   -0.7248   -1.7875 H   0  0  0  0  0  0  0  0  0  0  0  0
   -2.7543    0.3229    2.6495 H   0  0  0  0  0  0  0  0  0  0  0  0
   -1.0056    0.2327    2.9690 H   0  0  0  0  0  0  0  0  0  0  0  0
   -1.6184    1.2683    1.6574 H   0  0  0  0  0  0  0  0  0  0  0  0
    1.5949    1.2359   -2.8084 H   0  0  0  0  0  0  0  0  0  0  0  0
    1.6023   -4.3375   -0.0717 H   0  0  0  0  0  0  0  0  0  0  0  0
    2.2270   -0.1293    0.4720 H   0  0  0  0  0  0  0  0  0  0  0  0
    3.8585   -4.5371   -1.0304 H   0  0  0  0  0  0  0  0  0  0  0  0
    4.4780   -0.3501   -0.4943 H   0  0  0  0  0  0  0  0  0  0  0  0
   -4.2657   -0.7548   -1.7836 H   0  0  0  0  0  0  0  0  0  0  0  0
    5.2909   -2.5484   -1.2414 H   0  0  0  0  0  0  0  0  0  0  0  0
   -6.5707   -0.4141    0.1883 H   0  0  0  0  0  0  0  0  0  0  0  0
   -6.7348   -0.7267   -1.5563 H   0  0  0  0  0  0  0  0  0  0  0  0
   -6.0096   -1.9586   -0.4958 H   0  0  0  0  0  0  0  0  0  0  0  0
   -3.8818    1.6551   -1.3434 H   0  0  0  0  0  0  0  0  0  0  0  0
   -5.4922    1.3836   -2.0513 H   0  0  0  0  0  0  0  0  0  0  0  0
   -5.3281    1.6962   -0.3067 H   0  0  0  0  0  0  0  0  0  0  0  0
 12 25  1  0  0  0  0
 18 25  1  0  0  0  0
 21 25  1  0  0  0  0
  1 12  1  0  0  0  0
  2 12  2  0  0  0  0
 13 18  1  0  0  0  0
 16 18  2  0  0  0  0
 19 21  1  0  0  0  0
  9 21  1  0  0  0  0
  1 14  2  0  0  0  0
  2  3  1  0  0  0  0
  4 13  1  0  0  0  0
  5 13  2  0  0  0  0
 19 20  1  0  0  0  0
 17 19  2  0  0  0  0
 14 15  1  0  0  0  0
 14 23  1  0  0  0  0
  4  6  2  0  0  0  0
  5  7  1  0  0  0  0
 20 22  1  0  0  0  0
 15 24  1  0  0  0  0
  6  8  1  0  0  0  0
 10 22  1  0  0  0  0
 11 22  1  0  0  0  0
  3 15  2  0  0  0  0
  7  8  2  0  0  0  0
 21 26  1  0  0  0  0
  1 27  1  0  0  0  0
  2 28  1  0  0  0  0
  9 29  1  0  0  0  0
  9 30  1  0  0  0  0
  9 31  1  0  0  0  0
  3 32  1  0  0  0  0
  4 33  1  0  0  0  0
  5 34  1  0  0  0  0
  6 35  1  0  0  0  0
  7 36  1  0  0  0  0
 22 37  1  0  0  0  0
  8 38  1  0  0  0  0
 10 39  1  0  0  0  0
 10 40  1  0  0  0  0
 10 41  1  0  0  0  0
 11 42  1  0  0  0  0
 11 43  1  0  0  0  0
 11 44  1  0  0  0  0
M  END
$$$$
